# Generated by pormake.
# Topology pcu, (6)-cn, num edge types: 1
# Building blocks:
#     Node 0, Type 0, BuildingBlock: N480, # of connection points: 6
#     Edge 1, Type (0, 0), BuildingBlock: N#CC1(F)Cc2c([Fr])c(F)c(F)c([Fr])c21, # of connection points: 2
#     Edge 2, Type (0, 0), BuildingBlock: N#CC1(F)Cc2c([Fr])c(F)c(F)c([Fr])c21, # of connection points: 2
#     Edge 3, Type (0, 0), BuildingBlock: N#CC1(F)Cc2c([Fr])c(F)c(F)c([Fr])c21, # of connection points: 2
# Relax obj value: 0.000
# Max RMSD: 0.000
# Mean RMSD: 0.000
data_N#CC1(F)Cc2c([Fr])c(F)c(F)c([Fr])c21_pcu_N480
_symmetry_space_group_name_H-M    P1
_symmetry_Int_Tables_number       1
_symmetry_cell_setting            triclinic
loop_
_symmetry_equiv_pos_as_xyz
'x, y, z'
_cell_length_a     13.834
_cell_length_b     10.505
_cell_length_c     10.849
_cell_angle_alpha  96.036
_cell_angle_beta   85.458
_cell_angle_gamma  108.640
loop_
_atom_site_label
_atom_site_type_symbol
_atom_site_fract_x
_atom_site_fract_y
_atom_site_fract_z
_atom_type_partial_charge
O0 O 0.90217 0.77001 0.97061 0.0
Co1 Co 0.11133 0.04297 0.99511 0.0
C2 C 0.00280 0.02578 0.76774 0.0
Co3 Co 0.88886 0.95722 0.00509 0.0
C4 C 0.99740 0.97442 0.23246 0.0
O5 O 0.08555 0.01412 0.17730 0.0
O6 O 0.91538 0.95118 0.18502 0.0
C7 C 0.67046 0.94656 0.99399 0.0
O8 O 0.26279 0.10658 0.99197 0.0
O9 O 0.39058 0.09363 0.08997 0.0
C10 C 0.32974 0.05365 0.00621 0.0
O11 O 0.92808 0.16168 0.03519 0.0
O12 O 0.09803 0.23019 0.02959 0.0
C13 C 0.98637 0.74917 0.96178 0.0
C14 C 0.01383 0.25104 0.03843 0.0
O15 O 0.91465 0.98608 0.82290 0.0
O16 O 0.08481 0.04902 0.81518 0.0
O17 O 0.73741 0.89363 0.00823 0.0
O18 O 0.60961 0.90657 0.91023 0.0
O19 O 0.07212 0.83852 0.96501 0.0
N20 N 0.21540 0.38576 0.68380 0.0
C21 C 0.13765 0.40069 0.71677 0.0
C22 C 0.03893 0.41879 0.75621 0.0
F23 F 0.05391 0.31052 0.66219 0.0
C24 C 0.03958 0.55758 0.75216 0.0
C25 C 0.01826 0.56286 0.88605 0.0
C26 C 0.00010 0.63216 0.99990 0.0
C27 C 0.98275 0.57191 0.10906 0.0
F28 F 0.96375 0.64820 0.22838 0.0
C29 C 0.98294 0.43848 0.10786 0.0
F30 F 0.96409 0.37041 0.22625 0.0
C31 C 0.00010 0.36799 0.99990 0.0
C32 C 0.01770 0.43437 0.88956 0.0
H33 H 0.05556 0.65117 0.65177 0.0
H34 H 0.05556 0.65117 0.65177 0.0
N35 N 0.64872 0.17573 0.37948 0.0
C36 C 0.62518 0.19207 0.28360 0.0
C37 C 0.59623 0.21519 0.16309 0.0
F38 F 0.69170 0.29809 0.22593 0.0
C39 C 0.49141 0.21876 0.16580 0.0
C40 C 0.46852 0.10068 0.07632 0.0
C41 C 0.39989 0.00010 0.00010 0.0
C42 C 0.43021 0.90401 0.92728 0.0
F43 F 0.35545 0.79878 0.84754 0.0
C44 C 0.53170 0.90507 0.92809 0.0
F45 F 0.56671 0.80066 0.84897 0.0
C46 C 0.60050 0.00010 0.00010 0.0
C47 C 0.56560 0.09758 0.07397 0.0
H48 H 0.43448 0.30730 0.23289 0.0
H49 H 0.43448 0.30730 0.23289 0.0
N50 N 0.92780 0.56649 0.62846 0.0
C51 C 0.90018 0.65073 0.59715 0.0
C52 C 0.86351 0.75554 0.55791 0.0
F53 F 0.81087 0.66127 0.65468 0.0
C54 C 0.86125 0.75148 0.42317 0.0
C55 C 0.93623 0.88573 0.42954 0.0
C56 C 0.99990 0.99990 0.37217 0.0
C57 C 0.06112 0.10936 0.43991 0.0
F58 F 0.12794 0.22900 0.37627 0.0
C59 C 0.06045 0.10815 0.56901 0.0
F60 F 0.12675 0.22687 0.64508 0.0
C61 C 0.99990 0.99990 0.62798 0.0
C62 C 0.93820 0.88926 0.55426 0.0
H63 H 0.80502 0.65081 0.32393 0.0
H64 H 0.80502 0.65081 0.32393 0.0
loop_
_geom_bond_atom_site_label_1
_geom_bond_atom_site_label_2
_geom_bond_distance
_geom_bond_site_symmetry_2
_ccdc_geom_bond_type
O0 Co3 2.027 1_556 S
O0 C13 1.247 . A
Co1 Co3 2.914 1_446 S
Co1 O5 2.018 1_556 S
Co1 O8 1.984 . S
Co1 O12 2.027 1_556 S
Co1 O16 2.026 . S
Co1 O19 2.037 1_545 S
C2 O15 1.277 1_445 A
C2 O16 1.225 . A
Co3 O6 2.026 . S
Co3 O11 2.037 1_565 S
Co3 O15 2.018 1_554 S
Co3 O17 1.984 . S
C4 O5 1.277 1_665 A
C4 O6 1.225 . A
C7 O17 1.249 1_556 S
C7 O18 1.235 . D
O8 C10 1.249 1_556 S
O9 C10 1.235 . D
O11 C14 1.256 1_655 A
O12 C14 1.247 . A
C13 O19 1.256 1_655 A
N20 C21 1.159 . T
C21 C22 1.463 . S
C22 F23 1.500 . S
C22 C24 1.460 . S
C24 C25 1.458 . S
C25 C26 1.413 . A
C26 C27 1.370 1_456 A
C27 F28 1.500 . S
C27 C29 1.401 . A
C29 F30 1.500 . S
C29 C31 1.365 1_654 A
C31 C32 1.414 . A
C32 C22 1.456 . S
C32 C25 1.352 . A
C24 H33 1.500 . S
C24 H34 1.500 . S
N35 C36 1.159 . T
C36 C37 1.463 . S
C37 F38 1.500 . S
C37 C39 1.460 . S
C39 C40 1.458 . S
C40 C41 1.415 . A
C41 C42 1.367 1_544 A
C42 F43 1.500 . S
C42 C44 1.401 . A
C44 F45 1.500 . S
C44 C46 1.363 1_566 A
C46 C47 1.416 . A
C47 C37 1.456 . S
C47 C40 1.352 . A
C39 H48 1.500 . S
C39 H49 1.500 . S
N50 C51 1.159 . T
C51 C52 1.463 . S
C52 F53 1.500 . S
C52 C54 1.460 . S
C54 C55 1.458 . S
C55 C56 1.413 . A
C56 C57 1.370 1_665 A
C57 F58 1.500 . S
C57 C59 1.401 . A
C59 F60 1.500 . S
C59 C61 1.365 1_445 A
C61 C62 1.413 . A
C62 C52 1.456 . S
C62 C55 1.352 . A
C54 H63 1.500 . S
C54 H64 1.500 . S
C26 C13 1.409 1_455 S
C31 C14 1.411 1_556 S
C41 C10 1.262 . S
C46 C7 1.260 1_544 S
C56 C4 1.512 . S
C61 C2 1.513 1_665 S
