# Generated by pormake.
# Topology lon, (4)-cn, num edge types: 1
# Building blocks:
#     Node 0, Type 0, BuildingBlock: N627, # of connection points: 4
#     Node 1, Type 0, BuildingBlock: N627, # of connection points: 4
#     Node 2, Type 0, BuildingBlock: N627, # of connection points: 4
#     Node 3, Type 0, BuildingBlock: N627, # of connection points: 4
#     Edge 4, Type (0, 0), BuildingBlock: NC1([Fr])C=C=C([Fr])CC1(N)N, # of connection points: 2
#     Edge 5, Type (0, 0), BuildingBlock: NC1([Fr])C=C=C([Fr])CC1(N)N, # of connection points: 2
#     Edge 6, Type (0, 0), BuildingBlock: NC1([Fr])C=C=C([Fr])CC1(N)N, # of connection points: 2
#     Edge 7, Type (0, 0), BuildingBlock: NC1([Fr])C=C=C([Fr])CC1(N)N, # of connection points: 2
#     Edge 8, Type (0, 0), BuildingBlock: NC1([Fr])C=C=C([Fr])CC1(N)N, # of connection points: 2
#     Edge 9, Type (0, 0), BuildingBlock: NC1([Fr])C=C=C([Fr])CC1(N)N, # of connection points: 2
#     Edge 10, Type (0, 0), BuildingBlock: NC1([Fr])C=C=C([Fr])CC1(N)N, # of connection points: 2
#     Edge 11, Type (0, 0), BuildingBlock: NC1([Fr])C=C=C([Fr])CC1(N)N, # of connection points: 2
# Relax obj value: 0.081
# Max RMSD: 0.108
# Mean RMSD: 0.105
data_NC1([Fr])C=C=C([Fr])CC1(N)N_lon_N627
_symmetry_space_group_name_H-M    P1
_symmetry_Int_Tables_number       1
_symmetry_cell_setting            triclinic
loop_
_symmetry_equiv_pos_as_xyz
'x, y, z'
_cell_length_a     18.320
_cell_length_b     17.492
_cell_length_c     30.531
_cell_angle_alpha  89.731
_cell_angle_beta   96.893
_cell_angle_gamma  125.150
loop_
_atom_site_label
_atom_site_type_symbol
_atom_site_fract_x
_atom_site_fract_y
_atom_site_fract_z
_atom_type_partial_charge
C0 C 0.14936 0.51533 0.45763 0.0
O1 O 0.32730 0.70673 0.49108 0.0
O2 O 0.39144 0.77556 0.43435 0.0
O3 O 0.41727 0.65792 0.38055 0.0
O4 O 0.27504 0.57314 0.35226 0.0
O5 O 0.16136 0.56546 0.42573 0.0
O6 O 0.20389 0.49548 0.46929 0.0
O7 O 0.33548 0.49069 0.43001 0.0
C8 C 0.39534 0.53334 0.46405 0.0
C9 C 0.38235 0.77927 0.47419 0.0
C10 C 0.35723 0.61299 0.34808 0.0
Er11 Er 0.31308 0.61191 0.42965 0.0
O12 O 0.41882 0.61239 0.47922 0.0
C13 C 0.56076 0.19748 0.95997 0.0
O14 O 0.56785 0.37164 0.98749 0.0
O15 O 0.56649 0.43979 0.92849 0.0
O16 O 0.71131 0.48429 0.87904 0.0
O17 O 0.63647 0.33834 0.85300 0.0
O18 O 0.52151 0.20813 0.92624 0.0
O19 O 0.64251 0.25864 0.97270 0.0
O20 O 0.79215 0.40716 0.93426 0.0
C21 C 0.81790 0.46616 0.96715 0.0
C22 C 0.55494 0.42630 0.96822 0.0
C23 C 0.68776 0.42521 0.84782 0.0
Er24 Er 0.64433 0.37031 0.92933 0.0
O25 O 0.76500 0.48289 0.97958 0.0
C26 C 0.57875 0.14451 0.53790 0.0
O27 O 0.75707 0.31866 0.51447 0.0
O28 O 0.83704 0.40507 0.57497 0.0
O29 O 0.73784 0.45268 0.62258 0.0
O30 O 0.66067 0.31299 0.64652 0.0
O31 O 0.63412 0.16742 0.57256 0.0
O32 O 0.55826 0.19856 0.52509 0.0
O33 O 0.56542 0.35155 0.56411 0.0
C34 C 0.59944 0.40262 0.53221 0.0
C35 C 0.83120 0.38170 0.53524 0.0
C36 C 0.70129 0.40091 0.65277 0.0
Er37 Er 0.68057 0.32613 0.57099 0.0
O38 O 0.67175 0.42111 0.52122 0.0
C39 C 0.42624 0.85734 0.04422 0.0
O40 O 0.23816 0.68010 0.00753 0.0
O41 O 0.17433 0.60302 0.06280 0.0
O42 O 0.28663 0.56095 0.11781 0.0
O43 O 0.37310 0.70471 0.14778 0.0
O44 O 0.38056 0.84015 0.07527 0.0
O45 O 0.44212 0.80055 0.03261 0.0
O46 O 0.44377 0.65208 0.07116 0.0
C47 C 0.39962 0.59607 0.03641 0.0
C48 C 0.16900 0.62051 0.02312 0.0
C49 C 0.33283 0.61737 0.15102 0.0
Er50 Er 0.33100 0.68021 0.07003 0.0
O51 O 0.32377 0.57663 0.02014 0.0
N52 N 0.33465 0.64296 0.33185 0.0
C53 C 0.34780 0.60622 0.29542 0.0
C54 C 0.28008 0.55106 0.25917 0.0
C55 C 0.27776 0.55512 0.22070 0.0
C56 C 0.34843 0.62138 0.20411 0.0
C57 C 0.42569 0.68649 0.23180 0.0
C58 C 0.42969 0.68275 0.27775 0.0
N59 N 0.48428 0.75762 0.30859 0.0
N60 N 0.49144 0.64120 0.27305 0.0
H61 H 0.27161 0.58856 0.34010 0.0
H62 H 0.33196 0.69692 0.32052 0.0
H63 H 0.19320 0.47073 0.27254 0.0
H64 H 0.50798 0.76346 0.21363 0.0
H65 H 0.50798 0.76346 0.21363 0.0
H66 H 0.54940 0.80023 0.29914 0.0
H67 H 0.49146 0.74023 0.34021 0.0
H68 H 0.52377 0.64777 0.30516 0.0
H69 H 0.53825 0.68706 0.25260 0.0
N70 N 0.74425 0.43666 0.83603 0.0
C71 C 0.68766 0.41091 0.79566 0.0
C72 C 0.70123 0.47388 0.76310 0.0
C73 C 0.70392 0.47162 0.72495 0.0
C74 C 0.69301 0.39945 0.70480 0.0
C75 C 0.67835 0.32597 0.72833 0.0
C76 C 0.67492 0.32745 0.77384 0.0
N77 N 0.69577 0.28159 0.80364 0.0
N78 N 0.56303 0.25047 0.75977 0.0
H79 H 0.75817 0.50083 0.84773 0.0
H80 H 0.80211 0.44638 0.82835 0.0
H81 H 0.71506 0.56179 0.78090 0.0
H82 H 0.66557 0.24205 0.70600 0.0
H83 H 0.66557 0.24205 0.70600 0.0
H84 H 0.66716 0.21307 0.78976 0.0
H85 H 0.67311 0.27531 0.83353 0.0
H86 H 0.53758 0.21948 0.78894 0.0
H87 H 0.55686 0.20161 0.73703 0.0
N88 N 0.85126 0.36016 0.54258 0.0
C89 C 0.92114 0.43666 0.52373 0.0
C90 C 0.01151 0.49457 0.54469 0.0
C91 C 0.08071 0.52047 0.53329 0.0
C92 C 0.08305 0.49500 0.49371 0.0
C93 C 0.00424 0.43772 0.46535 0.0
C94 C 0.92109 0.40616 0.47837 0.0
N95 N 0.83961 0.32471 0.46236 0.0
N96 N 0.92412 0.48524 0.44584 0.0
H97 H 0.86012 0.38307 0.57579 0.0
H98 H 0.86218 0.30882 0.54082 0.0
H99 H 0.02108 0.53038 0.59107 0.0
H100 H 0.00492 0.40733 0.41964 0.0
H101 H 0.00492 0.40733 0.41964 0.0
H102 H 0.83470 0.31676 0.42758 0.0
H103 H 0.78423 0.32141 0.46896 0.0
H104 H 0.85795 0.46722 0.44045 0.0
H105 H 0.94239 0.47394 0.41655 0.0
N106 N 0.52637 0.17401 0.95759 0.0
C107 C 0.52539 0.12209 0.99280 0.0
C108 C 0.44715 0.05635 0.01155 0.0
C109 C 0.41382 0.97812 0.01961 0.0
C110 C 0.45066 0.93566 0.01091 0.0
C111 C 0.52866 0.98275 0.99225 0.0
C112 C 0.56936 0.07605 0.98241 0.0
N113 N 0.62270 0.11880 0.94996 0.0
N114 N 0.64493 0.10221 0.02716 0.0
H115 H 0.48680 0.19691 0.96463 0.0
H116 H 0.49544 0.12708 0.93003 0.0
H117 H 0.39608 0.09424 0.02365 0.0
H118 H 0.57251 0.93564 0.98189 0.0
H119 H 0.57251 0.93564 0.98189 0.0
H120 H 0.66777 0.09931 0.95049 0.0
H121 H 0.66066 0.19078 0.95287 0.0
H122 H 0.70075 0.17150 0.02491 0.0
H123 H 0.66137 0.05456 0.02302 0.0
N124 N 0.51353 0.39822 0.97151 0.0
C125 C 0.53131 0.48482 0.98418 0.0
C126 C 0.47744 0.51500 0.96714 0.0
C127 C 0.44402 0.54566 0.98380 0.0
C128 C 0.45409 0.55750 0.02679 0.0
C129 C 0.50395 0.53397 0.05257 0.0
C130 C 0.54429 0.49731 0.03328 0.0
N131 N 0.56419 0.43909 0.05234 0.0
N132 N 0.64093 0.60397 0.04691 0.0
H133 H 0.49603 0.38899 0.93692 0.0
H134 H 0.45867 0.34927 0.98623 0.0
H135 H 0.45911 0.50602 0.91754 0.0
H136 H 0.51665 0.54685 0.10210 0.0
H137 H 0.51665 0.54685 0.10210 0.0
H138 H 0.59264 0.46398 0.08578 0.0
H139 H 0.60874 0.43378 0.03755 0.0
H140 H 0.69335 0.59629 0.04474 0.0
H141 H 0.63919 0.61885 0.07986 0.0
N142 N 0.36147 0.44906 0.44194 0.0
C143 C 0.43814 0.48662 0.47362 0.0
C144 C 0.43674 0.45399 0.51616 0.0
C145 C 0.47889 0.43109 0.53637 0.0
C146 C 0.54202 0.43330 0.51939 0.0
C147 C 0.55912 0.46254 0.47776 0.0
C148 C 0.50955 0.49011 0.45317 0.0
N149 N 0.49355 0.48542 0.40790 0.0
N150 N 0.60243 0.59976 0.46588 0.0
H151 H 0.31075 0.43944 0.45916 0.0
H152 H 0.34542 0.38513 0.43051 0.0
H153 H 0.36706 0.44715 0.54055 0.0
H154 H 0.63135 0.46580 0.45742 0.0
H155 H 0.63135 0.46580 0.45742 0.0
H156 H 0.55385 0.50913 0.39513 0.0
H157 H 0.47159 0.52473 0.39563 0.0
H158 H 0.59500 0.64214 0.44388 0.0
H159 H 0.65475 0.59521 0.45925 0.0
N160 N 0.14259 0.53764 0.01368 0.0
C161 C 0.08465 0.56582 0.01107 0.0
C162 C 0.04980 0.58191 0.97104 0.0
C163 C 0.97673 0.55564 0.95513 0.0
C164 C 0.90804 0.49966 0.97566 0.0
C165 C 0.92139 0.47145 0.01599 0.0
C166 C 0.00805 0.50207 0.03547 0.0
N167 N 0.02843 0.45497 0.06465 0.0
N168 N 0.00155 0.57290 0.06911 0.0
H169 H 0.18993 0.57866 0.99237 0.0
H170 H 0.10280 0.46833 0.00160 0.0
H171 H 0.12071 0.64568 0.94307 0.0
H172 H 0.84362 0.40709 0.04034 0.0
H173 H 0.84362 0.40709 0.04034 0.0
H174 H 0.98258 0.42775 0.08797 0.0
H175 H 0.09241 0.49493 0.08203 0.0
H176 H 0.05293 0.59592 0.09612 0.0
H177 H 0.93761 0.52846 0.07895 0.0
N178 N 0.63064 0.14210 0.52428 0.0
C179 C 0.54425 0.06698 0.50539 0.0
C180 C 0.52607 0.01483 0.46539 0.0
C181 C 0.48540 0.93423 0.45533 0.0
C182 C 0.44582 0.87344 0.48436 0.0
C183 C 0.45184 0.90397 0.52680 0.0
C184 C 0.50005 0.99990 0.53939 0.0
N185 N 0.54076 0.04145 0.58132 0.0
N186 N 0.39835 0.97967 0.53733 0.0
H187 H 0.66180 0.18200 0.49797 0.0
H188 H 0.66255 0.11225 0.53695 0.0
H189 H 0.56719 0.07472 0.42806 0.0
H190 H 0.40698 0.83561 0.56088 0.0
H191 H 0.40698 0.83561 0.56088 0.0
H192 H 0.49667 0.99990 0.60412 0.0
H193 H 0.55766 0.10814 0.58634 0.0
H194 H 0.40915 0.03809 0.55460 0.0
H195 H 0.36232 0.91931 0.55450 0.0
loop_
_geom_bond_atom_site_label_1
_geom_bond_atom_site_label_2
_geom_bond_distance
_geom_bond_site_symmetry_2
_ccdc_geom_bond_type
C0 O5 1.260 . A
C0 O6 1.248 . A
O1 C9 1.240 . A
O1 Er11 2.398 . S
O2 C9 1.254 . A
O2 Er11 2.345 . S
O3 C10 1.249 . A
O3 Er11 2.333 . S
O4 C10 1.267 . A
O4 Er11 2.367 . S
O5 Er11 2.392 . S
O6 Er11 2.341 . S
O7 C8 1.277 . A
O7 Er11 2.380 . S
C8 O12 1.259 . A
Er11 O12 2.307 . S
C13 O18 1.260 . A
C13 O19 1.248 . A
O14 C22 1.240 . A
O14 Er24 2.398 . S
O15 C22 1.254 . A
O15 Er24 2.345 . S
O16 C23 1.249 . A
O16 Er24 2.333 . S
O17 C23 1.267 . A
O17 Er24 2.367 . S
O18 Er24 2.392 . S
O19 Er24 2.341 . S
O20 C21 1.277 . A
O20 Er24 2.380 . S
C21 O25 1.259 . A
Er24 O25 2.307 . S
C26 O31 1.260 . A
C26 O32 1.248 . A
O27 C35 1.240 . A
O27 Er37 2.398 . S
O28 C35 1.254 . A
O28 Er37 2.345 . S
O29 C36 1.249 . A
O29 Er37 2.333 . S
O30 C36 1.267 . A
O30 Er37 2.367 . S
O31 Er37 2.392 . S
O32 Er37 2.341 . S
O33 C34 1.277 . A
O33 Er37 2.380 . S
C34 O38 1.259 . A
Er37 O38 2.307 . S
C39 O44 1.260 . A
C39 O45 1.248 . A
O40 C48 1.240 . A
O40 Er50 2.398 . S
O41 C48 1.254 . A
O41 Er50 2.345 . S
O42 C49 1.249 . A
O42 Er50 2.333 . S
O43 C49 1.267 . A
O43 Er50 2.367 . S
O44 Er50 2.392 . S
O45 Er50 2.341 . S
O46 C47 1.277 . A
O46 Er50 2.380 . S
C47 O51 1.259 . A
Er50 O51 2.307 . S
N52 C53 1.399 . S
C53 C54 1.413 . S
C54 C55 1.173 . D
C55 C56 1.304 . D
C56 C57 1.371 . S
C57 C58 1.399 . S
C58 N59 1.371 . S
C58 N60 1.678 . S
C58 C53 1.486 . S
N52 H61 1.051 . S
N52 H62 1.029 . S
C54 H63 1.500 . S
C57 H64 1.500 . S
C57 H65 1.500 . S
N59 H66 1.058 . S
N59 H67 1.027 . S
N60 H68 1.053 . S
N60 H69 1.049 . S
N70 C71 1.399 . S
C71 C72 1.413 . S
C72 C73 1.173 . D
C73 C74 1.304 . D
C74 C75 1.371 . S
C75 C76 1.399 . S
C76 N77 1.371 . S
C76 N78 1.678 . S
C76 C71 1.486 . S
N70 H79 1.051 . S
N70 H80 1.029 . S
C72 H81 1.500 . S
C75 H82 1.500 . S
C75 H83 1.500 . S
N77 H84 1.058 . S
N77 H85 1.027 . S
N78 H86 1.053 . S
N78 H87 1.049 . S
N88 C89 1.399 . S
C89 C90 1.413 1_655 S
C90 C91 1.173 . D
C91 C92 1.304 . D
C92 C93 1.371 . S
C93 C94 1.399 1_455 S
C94 N95 1.371 . S
C94 N96 1.678 . S
C94 C89 1.486 . S
N88 H97 1.051 . S
N88 H98 1.029 . S
C90 H99 1.500 . S
C93 H100 1.500 . S
C93 H101 1.500 . S
N95 H102 1.058 . S
N95 H103 1.027 . S
N96 H104 1.053 . S
N96 H105 1.049 . S
N106 C107 1.399 . S
C107 C108 1.413 1_556 S
C108 C109 1.173 1_545 D
C109 C110 1.304 . D
C110 C111 1.371 1_554 S
C111 C112 1.399 1_565 S
C112 N113 1.371 . S
C112 N114 1.678 1_556 S
C112 C107 1.486 . S
N106 H115 1.051 . S
N106 H116 1.029 . S
C108 H117 1.500 . S
C111 H118 1.500 . S
C111 H119 1.500 . S
N113 H120 1.058 . S
N113 H121 1.027 . S
N114 H122 1.053 . S
N114 H123 1.049 . S
N124 C125 1.399 . S
C125 C126 1.413 . S
C126 C127 1.173 . D
C127 C128 1.304 1_556 D
C128 C129 1.371 . S
C129 C130 1.399 . S
C130 N131 1.371 . S
C130 N132 1.678 . S
C130 C125 1.486 1_554 S
N124 H133 1.051 . S
N124 H134 1.029 . S
C126 H135 1.500 . S
C129 H136 1.500 . S
C129 H137 1.500 . S
N131 H138 1.058 . S
N131 H139 1.027 . S
N132 H140 1.053 . S
N132 H141 1.049 . S
N142 C143 1.399 . S
C143 C144 1.413 . S
C144 C145 1.173 . D
C145 C146 1.304 . D
C146 C147 1.371 . S
C147 C148 1.399 . S
C148 N149 1.371 . S
C148 N150 1.678 . S
C148 C143 1.486 . S
N142 H151 1.051 . S
N142 H152 1.029 . S
C144 H153 1.500 . S
C147 H154 1.500 . S
C147 H155 1.500 . S
N149 H156 1.058 . S
N149 H157 1.027 . S
N150 H158 1.053 . S
N150 H159 1.049 . S
N160 C161 1.399 . S
C161 C162 1.413 1_554 S
C162 C163 1.173 1_455 D
C163 C164 1.304 . D
C164 C165 1.371 1_556 S
C165 C166 1.399 1_655 S
C166 N167 1.371 . S
C166 N168 1.678 . S
C166 C161 1.486 . S
N160 H169 1.051 1_554 S
N160 H170 1.029 . S
C162 H171 1.500 . S
C165 H172 1.500 . S
C165 H173 1.500 . S
N167 H174 1.058 1_455 S
N167 H175 1.027 . S
N168 H176 1.053 . S
N168 H177 1.049 1_455 S
N178 C179 1.399 . S
C179 C180 1.413 . S
C180 C181 1.173 1_545 D
C181 C182 1.304 . D
C182 C183 1.371 . S
C183 C184 1.401 . S
C184 N185 1.371 1_565 S
C184 N186 1.677 . S
C184 C179 1.485 1_565 S
N178 H187 1.051 . S
N178 H188 1.029 . S
C180 H189 1.500 . S
C183 H190 1.500 . S
C183 H191 1.500 . S
N185 H192 1.058 1_545 S
N185 H193 1.027 . S
N186 H194 1.053 1_565 S
N186 H195 1.049 . S
C53 C10 1.594 . S
C56 C49 1.607 . S
C71 C23 1.613 . S
C74 C36 1.612 . S
C89 C35 1.440 . S
C92 C0 1.624 . S
C107 C13 1.524 . S
C110 C39 1.582 . S
C125 C22 1.428 . S
C128 C47 1.544 . S
C143 C8 1.431 . S
C146 C34 1.448 . S
C161 C48 1.266 . S
C164 C21 1.386 . S
C179 C26 1.449 . S
C182 C9 1.369 . S
