# Generated by pormake.
# Topology hex, (8)-cn, num edge types: 1
# Building blocks:
#     Node 0, Type 0, BuildingBlock: N337, # of connection points: 8
#     Edge 1, Type (0, 0), BuildingBlock: O=CCC(C=O)(C(C=O)C[Fr])C(C=O)C([Fr])SNC=O, # of connection points: 2
#     Edge 2, Type (0, 0), BuildingBlock: O=CCC(C=O)(C(C=O)C[Fr])C(C=O)C([Fr])SNC=O, # of connection points: 2
#     Edge 3, Type (0, 0), BuildingBlock: O=CCC(C=O)(C(C=O)C[Fr])C(C=O)C([Fr])SNC=O, # of connection points: 2
#     Edge 4, Type (0, 0), BuildingBlock: O=CCC(C=O)(C(C=O)C[Fr])C(C=O)C([Fr])SNC=O, # of connection points: 2
# Relax obj value: 0.084
# Max RMSD: 0.205
# Mean RMSD: 0.205
data_O=CCC(C=O)(C(C=O)C[Fr])C(C=O)C([Fr])SNC=O_hex_N337
_symmetry_space_group_name_H-M    P1
_symmetry_Int_Tables_number       1
_symmetry_cell_setting            triclinic
loop_
_symmetry_equiv_pos_as_xyz
'x, y, z'
_cell_length_a     16.237
_cell_length_b     16.048
_cell_length_c     12.231
_cell_angle_alpha  94.031
_cell_angle_beta   101.319
_cell_angle_gamma  132.998
loop_
_atom_site_label
_atom_site_type_symbol
_atom_site_fract_x
_atom_site_fract_y
_atom_site_fract_z
_atom_type_partial_charge
O0 O 0.95775 0.02824 0.83245 0.0
O1 O 0.03522 0.95455 0.81844 0.0
Lu2 Lu 0.91562 0.06672 0.97919 0.0
O3 O 0.21794 0.85081 0.87480 0.0
O4 O 0.23148 0.99102 0.95634 0.0
O5 O 0.97527 0.24332 0.00583 0.0
O6 O 0.95942 0.37184 0.00010 0.0
O7 O 0.76321 0.85875 0.92916 0.0
O8 O 0.88369 0.83154 0.95256 0.0
Lu9 Lu 0.07101 0.92564 0.00229 0.0
C10 C 0.20352 0.21383 0.04095 0.0
O11 O 0.98759 0.04884 0.13542 0.0
O12 O 0.05334 0.96610 0.18461 0.0
O13 O 0.14101 0.23498 0.02988 0.0
O14 O 0.16619 0.11412 0.03677 0.0
C15 C 0.98991 0.99022 0.77827 0.0
C16 C 0.27140 0.95618 0.91281 0.0
C17 C 0.78176 0.79498 0.93223 0.0
O18 O 0.66746 0.04551 0.00010 0.0
O19 O 0.79421 0.03332 0.07632 0.0
C20 C 0.01757 0.01213 0.20547 0.0
O21 O 0.05276 0.80170 0.09856 0.0
O22 O 0.12763 0.72834 0.07711 0.0
C23 C 0.71341 0.02764 0.07545 0.0
C24 C 0.05266 0.72390 0.09943 0.0
C25 C 0.97379 0.31067 0.95848 0.0
O26 O 0.51505 0.64305 0.22733 0.0
C27 C 0.59641 0.65135 0.24444 0.0
C28 C 0.62013 0.60669 0.16236 0.0
C29 C 0.54273 0.54939 0.03903 0.0
C30 C 0.58644 0.50816 0.97561 0.0
O31 O 0.66671 0.52166 0.02865 0.0
C32 C 0.55855 0.63554 0.97470 0.0
C33 C 0.53181 0.69775 0.02072 0.0
O34 O 0.43131 0.65563 0.98881 0.0
C35 C 0.68440 0.72452 0.96510 0.0
C36 C 0.41281 0.44706 0.01336 0.0
C37 C 0.34527 0.39822 0.88464 0.0
O38 O 0.33353 0.32578 0.82376 0.0
C39 C 0.37288 0.34645 0.06060 0.0
S40 S 0.42445 0.38284 0.21601 0.0
N41 N 0.37181 0.25846 0.26023 0.0
C42 C 0.45459 0.25613 0.31932 0.0
O43 O 0.56670 0.34312 0.34070 0.0
H44 H 0.65877 0.69965 0.33518 0.0
H45 H 0.62230 0.54342 0.19246 0.0
H46 H 0.71787 0.68407 0.16926 0.0
H47 H 0.54137 0.46752 0.88312 0.0
H48 H 0.49849 0.57816 0.88205 0.0
H49 H 0.60103 0.78349 0.08470 0.0
H50 H 0.69168 0.78692 0.92182 0.0
H51 H 0.75384 0.78000 0.05299 0.0
H52 H 0.38046 0.48241 0.05079 0.0
H53 H 0.30485 0.42614 0.84211 0.0
H54 H 0.39506 0.30239 0.01852 0.0
H55 H 0.28171 0.18422 0.24584 0.0
H56 H 0.42933 0.18214 0.34988 0.0
O57 O 0.25696 0.67848 0.93991 0.0
C58 C 0.17953 0.66811 0.88238 0.0
C59 C 0.06288 0.60295 0.89194 0.0
C60 C 0.03184 0.54610 0.98684 0.0
C61 C 0.90349 0.48136 0.97196 0.0
O62 O 0.84774 0.48065 0.89114 0.0
C63 C 0.10043 0.63438 0.10787 0.0
C64 C 0.22957 0.71699 0.14531 0.0
O65 O 0.27987 0.69231 0.19559 0.0
C66 C 0.06545 0.70203 0.11804 0.0
C67 C 0.04086 0.46090 0.99517 0.0
C68 C 0.00724 0.41062 0.09596 0.0
O69 O 0.90398 0.32505 0.08533 0.0
C70 C 0.97513 0.36083 0.88977 0.0
S71 S 0.02137 0.40362 0.76620 0.0
N72 N 0.93851 0.27942 0.64930 0.0
C73 C 0.86167 0.26052 0.54744 0.0
O74 O 0.85191 0.33247 0.53966 0.0
H75 H 0.20402 0.71554 0.81481 0.0
H76 H 0.98995 0.53285 0.80807 0.0
H77 H 0.05190 0.66633 0.89597 0.0
H78 H 0.86813 0.43798 0.03708 0.0
H79 H 0.06079 0.57577 0.16714 0.0
H80 H 0.28433 0.80289 0.12937 0.0
H81 H 0.12125 0.76739 0.20569 0.0
H82 H 0.08990 0.75553 0.05489 0.0
H83 H 0.13849 0.51344 0.01827 0.0
H84 H 0.07421 0.44919 0.18137 0.0
H85 H 0.87627 0.30056 0.86879 0.0
H86 H 0.94184 0.21692 0.64934 0.0
H87 H 0.80696 0.18544 0.47067 0.0
O88 O 0.39309 0.85904 0.22297 0.0
C89 C 0.43143 0.95657 0.24259 0.0
C90 C 0.48056 0.03849 0.17247 0.0
C91 C 0.47943 0.00010 0.05802 0.0
C92 C 0.54026 0.10585 0.00725 0.0
O93 O 0.58135 0.19817 0.06238 0.0
C94 C 0.35452 0.90526 0.96638 0.0
C95 C 0.26995 0.79386 0.99375 0.0
O96 O 0.26209 0.71351 0.96800 0.0
C97 C 0.30174 0.95522 0.93646 0.0
C98 C 0.53771 0.95959 0.05527 0.0
C99 C 0.52913 0.92330 0.93323 0.0
O100 O 0.60205 0.99614 0.89148 0.0
C101 C 0.66384 0.04045 0.13228 0.0
S102 S 0.68798 0.07398 0.28481 0.0
N103 N 0.83806 0.16851 0.36518 0.0
C104 C 0.90341 0.28498 0.43148 0.0
O105 O 0.85464 0.32198 0.43345 0.0
H106 H 0.42702 0.98365 0.32523 0.0
H107 H 0.57492 0.12519 0.22279 0.0
H108 H 0.43262 0.06780 0.16158 0.0
H109 H 0.54339 0.09145 0.92141 0.0
H110 H 0.37178 0.89272 0.88462 0.0
H111 H 0.21159 0.77961 0.03782 0.0
H112 H 0.20993 0.88097 0.87330 0.0
H113 H 0.29079 0.98214 0.01438 0.0
H114 H 0.48351 0.87469 0.08155 0.0
H115 H 0.45751 0.83085 0.87864 0.0
H116 H 0.72280 0.12285 0.10326 0.0
H117 H 0.88382 0.14456 0.36779 0.0
H118 H 0.99721 0.34951 0.48401 0.0
O119 O 0.79012 0.70071 0.34355 0.0
C120 C 0.88067 0.74005 0.41334 0.0
C121 C 0.97981 0.85899 0.49151 0.0
C122 C 0.97159 0.94534 0.49598 0.0
C123 C 0.08962 0.06244 0.58184 0.0
O124 O 0.16808 0.07068 0.62704 0.0
C125 C 0.88123 0.91697 0.55148 0.0
C126 C 0.75806 0.80378 0.49335 0.0
O127 O 0.69057 0.79416 0.41492 0.0
C128 C 0.92153 0.92798 0.68104 0.0
C129 C 0.94780 0.96924 0.38564 0.0
C130 C 0.94118 0.05822 0.40324 0.0
O131 O 0.03078 0.16378 0.43293 0.0
C132 C 0.02883 0.00620 0.31756 0.0
S133 S 0.02934 0.89913 0.26697 0.0
N134 N 0.12679 0.95236 0.18877 0.0
C135 C 0.22933 0.97381 0.23293 0.0
O136 O 0.25172 0.95502 0.32867 0.0
H137 H 0.88526 0.67443 0.41530 0.0
H138 H 0.06545 0.90192 0.47564 0.0
H139 H 0.99842 0.84931 0.58258 0.0
H140 H 0.09680 0.13438 0.59808 0.0
H141 H 0.89208 0.99458 0.55329 0.0
H142 H 0.72324 0.72497 0.51863 0.0
H143 H 0.85043 0.90205 0.71492 0.0
H144 H 0.92567 0.86245 0.69174 0.0
H145 H 0.85484 0.88447 0.32816 0.0
H146 H 0.85613 0.03090 0.38992 0.0
H147 H 0.12116 0.09540 0.36815 0.0
H148 H 0.11438 0.96977 0.11011 0.0
H149 H 0.29457 0.00693 0.18968 0.0
loop_
_geom_bond_atom_site_label_1
_geom_bond_atom_site_label_2
_geom_bond_distance
_geom_bond_site_symmetry_2
_ccdc_geom_bond_type
O0 Lu2 2.230 . S
O0 C15 1.264 1_545 A
O1 Lu9 2.369 1_556 S
O1 C15 1.258 1_455 A
Lu2 O5 2.254 1_556 S
Lu2 O7 2.343 1_545 S
Lu2 O11 2.181 1_556 S
Lu2 O13 2.542 1_656 S
Lu2 O19 2.270 1_556 S
O3 C16 1.248 . D
O4 Lu9 2.266 1_556 S
O4 C16 1.267 . S
O5 C25 1.274 1_554 S
O6 C25 1.251 1_554 D
O7 C17 1.249 . A
O8 Lu9 2.187 1_656 S
O8 C17 1.280 . A
Lu9 O12 2.404 . S
Lu9 O14 2.214 1_565 S
Lu9 O21 2.257 . S
C10 O13 1.259 . A
C10 O14 1.259 . A
O11 C20 1.271 1_655 A
O12 C20 1.251 1_565 A
O18 C23 1.244 . D
O19 C23 1.249 . S
O21 C24 1.248 . S
O22 C24 1.255 . D
O26 C27 1.206 . D
C27 C28 1.448 . S
C28 C29 1.478 . S
C29 C30 1.526 1_554 S
C30 O31 1.196 1_556 D
C29 C32 1.531 1_554 S
C32 C33 1.453 1_556 S
C33 O34 1.217 1_554 D
C32 C35 1.538 . S
C29 C36 1.479 . S
C36 C37 1.507 1_554 S
C37 O38 1.209 . D
C36 C39 1.487 . S
C39 S40 1.791 . S
S40 N41 1.736 . S
N41 C42 1.422 . S
C42 O43 1.275 . D
C27 H44 1.107 . S
C28 H45 1.124 . S
C28 H46 1.146 . S
C30 H47 1.078 . S
C32 H48 1.130 . S
C33 H49 1.078 . S
C35 H50 1.111 . S
C35 H51 1.114 1_556 S
C36 H52 1.128 . S
C37 H53 1.096 . S
C39 H54 1.124 . S
N41 H55 1.041 . S
C42 H56 1.085 . S
O57 C58 1.206 . D
C58 C59 1.448 . S
C59 C60 1.478 . S
C60 C61 1.526 1_455 S
C61 O62 1.196 . D
C60 C63 1.531 1_556 S
C63 C64 1.453 . S
C64 O65 1.217 . D
C63 C66 1.538 . S
C60 C67 1.479 . S
C67 C68 1.507 1_556 S
C68 O69 1.209 1_455 D
C67 C70 1.487 1_455 S
C70 S71 1.791 1_655 S
S71 N72 1.736 1_455 S
N72 C73 1.422 . S
C73 O74 1.275 . D
C58 H75 1.107 . S
C59 H76 1.124 1_455 S
C59 H77 1.146 . S
C61 H78 1.078 1_556 S
C63 H79 1.130 . S
C64 H80 1.078 . S
C66 H81 1.111 . S
C66 H82 1.114 . S
C67 H83 1.128 1_556 S
C68 H84 1.096 . S
C70 H85 1.124 . S
N72 H86 1.041 . S
C73 H87 1.085 . S
O88 C89 1.206 . D
C89 C90 1.448 1_565 S
C90 C91 1.481 . S
C91 C92 1.531 . S
C92 O93 1.196 . D
C91 C94 1.531 1_544 S
C94 C95 1.453 . S
C95 O96 1.217 . D
C94 C97 1.538 . S
C91 C98 1.472 1_545 S
C98 C99 1.507 1_554 S
C99 O100 1.209 . D
C98 C101 1.487 1_565 S
C101 S102 1.791 . S
S102 N103 1.736 . S
N103 C104 1.422 . S
C104 O105 1.275 . D
C89 H106 1.107 . S
C90 H107 1.124 . S
C90 H108 1.146 . S
C92 H109 1.078 1_554 S
C94 H110 1.130 . S
C95 H111 1.078 1_556 S
C97 H112 1.111 . S
C97 H113 1.114 1_556 S
C98 H114 1.128 . S
C99 H115 1.096 . S
C101 H116 1.124 . S
N103 H117 1.041 . S
C104 H118 1.085 . S
O119 C120 1.206 . D
C120 C121 1.448 . S
C121 C122 1.478 . S
C122 C123 1.526 1_665 S
C123 O124 1.196 . D
C122 C125 1.531 . S
C125 C126 1.453 . S
C126 O127 1.217 . D
C125 C128 1.538 . S
C122 C129 1.479 . S
C129 C130 1.507 1_565 S
C130 O131 1.209 1_655 D
C129 C132 1.487 1_665 S
C132 S133 1.791 1_545 S
S133 N134 1.736 . S
N134 C135 1.422 . S
C135 O136 1.275 . D
C120 H137 1.107 . S
C121 H138 1.124 1_655 S
C121 H139 1.146 . S
C123 H140 1.078 . S
C125 H141 1.130 . S
C126 H142 1.078 . S
C128 H143 1.111 . S
C128 H144 1.114 . S
C129 H145 1.128 . S
C130 H146 1.096 . S
C132 H147 1.124 . S
N134 H148 1.041 . S
C135 H149 1.085 1_565 S
C35 C17 1.347 . S
C39 C10 1.958 . S
C66 C24 0.557 . S
C70 C25 1.197 . S
C97 C16 0.531 . S
C101 C23 1.264 . S
C128 C15 1.203 . S
C132 C20 1.366 . S
