# Generated by pormake.
# Topology nbo, (4)-cn, num edge types: 1
# Building blocks:
#     Node 0, Type 0, BuildingBlock: N390, # of connection points: 4
#     Node 1, Type 0, BuildingBlock: N390, # of connection points: 4
#     Node 2, Type 0, BuildingBlock: N390, # of connection points: 4
#     Node 3, Type 0, BuildingBlock: N390, # of connection points: 4
#     Node 4, Type 0, BuildingBlock: N390, # of connection points: 4
#     Node 5, Type 0, BuildingBlock: N390, # of connection points: 4
#     Edge 6, Type (0, 0), BuildingBlock: O=CC1([Fr])CN([Fr])[SH]=NC1(C=O)C=O, # of connection points: 2
#     Edge 7, Type (0, 0), BuildingBlock: O=CC1([Fr])CN([Fr])[SH]=NC1(C=O)C=O, # of connection points: 2
#     Edge 8, Type (0, 0), BuildingBlock: O=CC1([Fr])CN([Fr])[SH]=NC1(C=O)C=O, # of connection points: 2
#     Edge 9, Type (0, 0), BuildingBlock: O=CC1([Fr])CN([Fr])[SH]=NC1(C=O)C=O, # of connection points: 2
#     Edge 10, Type (0, 0), BuildingBlock: O=CC1([Fr])CN([Fr])[SH]=NC1(C=O)C=O, # of connection points: 2
#     Edge 11, Type (0, 0), BuildingBlock: O=CC1([Fr])CN([Fr])[SH]=NC1(C=O)C=O, # of connection points: 2
#     Edge 12, Type (0, 0), BuildingBlock: O=CC1([Fr])CN([Fr])[SH]=NC1(C=O)C=O, # of connection points: 2
#     Edge 13, Type (0, 0), BuildingBlock: O=CC1([Fr])CN([Fr])[SH]=NC1(C=O)C=O, # of connection points: 2
#     Edge 14, Type (0, 0), BuildingBlock: O=CC1([Fr])CN([Fr])[SH]=NC1(C=O)C=O, # of connection points: 2
#     Edge 15, Type (0, 0), BuildingBlock: O=CC1([Fr])CN([Fr])[SH]=NC1(C=O)C=O, # of connection points: 2
#     Edge 16, Type (0, 0), BuildingBlock: O=CC1([Fr])CN([Fr])[SH]=NC1(C=O)C=O, # of connection points: 2
#     Edge 17, Type (0, 0), BuildingBlock: O=CC1([Fr])CN([Fr])[SH]=NC1(C=O)C=O, # of connection points: 2
# Relax obj value: 0.001
# Max RMSD: 0.057
# Mean RMSD: 0.034
data_O=CC1([Fr])CN([Fr])[SH]=NC1(C=O)C=O_nbo_N390
_symmetry_space_group_name_H-M    P1
_symmetry_Int_Tables_number       1
_symmetry_cell_setting            triclinic
loop_
_symmetry_equiv_pos_as_xyz
'x, y, z'
_cell_length_a     21.752
_cell_length_b     21.744
_cell_length_c     21.723
_cell_angle_alpha  91.707
_cell_angle_beta   91.726
_cell_angle_gamma  91.699
loop_
_atom_site_label
_atom_site_type_symbol
_atom_site_fract_x
_atom_site_fract_y
_atom_site_fract_z
_atom_type_partial_charge
C0 C 0.04103 0.51740 0.13827 0.0
C1 C 0.89336 0.51630 0.00858 0.0
Co2 Co 0.07525 0.40383 0.05133 0.0
O3 O 0.02907 0.55605 0.91076 0.0
O4 O 0.93061 0.55736 0.00127 0.0
O5 O 0.15140 0.45223 0.01378 0.0
O6 O 0.12064 0.54943 0.01230 0.0
O7 O 0.02113 0.45300 0.99752 0.0
O8 O 0.04756 0.46097 0.87894 0.0
O9 O 0.90435 0.45788 0.00010 0.0
C10 C 0.15978 0.51063 0.01557 0.0
C11 C 0.03928 0.51553 0.86984 0.0
O12 O 0.02192 0.55484 0.10001 0.0
O13 O 0.05998 0.46583 0.12468 0.0
Co14 Co 0.02623 0.55149 0.00441 0.0
C15 C 0.52815 0.03870 0.89508 0.0
C16 C 0.52928 0.18640 0.02474 0.0
Co17 Co 0.64153 0.00431 0.98220 0.0
O18 O 0.48925 0.05066 0.12252 0.0
O19 O 0.48818 0.14919 0.03199 0.0
O20 O 0.59300 0.92818 0.01968 0.0
O21 O 0.49587 0.95907 0.02100 0.0
O22 O 0.59238 0.05850 0.03592 0.0
O23 O 0.58423 0.03205 0.15448 0.0
O24 O 0.58765 0.17533 0.03307 0.0
C25 C 0.53461 0.91987 0.01780 0.0
C26 C 0.52969 0.04039 0.16350 0.0
O27 O 0.49070 0.05786 0.93327 0.0
O28 O 0.57966 0.01967 0.90875 0.0
Co29 Co 0.49393 0.05352 0.02888 0.0
C30 C 0.01844 0.13020 0.54367 0.0
C31 C 0.87086 0.00010 0.54476 0.0
Co32 Co 0.05978 0.05016 0.65720 0.0
O33 O 0.00410 0.90057 0.50471 0.0
O34 O 0.90554 0.99095 0.50362 0.0
O35 O 0.13290 0.00971 0.60863 0.0
O36 O 0.09606 0.00240 0.51136 0.0
O37 O 0.00259 0.99345 0.60797 0.0
O38 O 0.02854 0.87450 0.59982 0.0
O39 O 0.88551 0.99602 0.60322 0.0
C40 C 0.13763 0.00798 0.55017 0.0
C41 C 0.01686 0.86212 0.54520 0.0
O42 O 0.99699 0.08973 0.50617 0.0
O43 O 0.04061 0.11971 0.59525 0.0
Co44 Co 0.00153 0.99441 0.50940 0.0
C45 C 0.39651 0.53875 0.00997 0.0
C46 C 0.52592 0.68638 0.00887 0.0
Co47 Co 0.47643 0.49747 0.89638 0.0
O48 O 0.62608 0.55306 0.04883 0.0
O49 O 0.53574 0.65166 0.05000 0.0
O50 O 0.51689 0.42429 0.94491 0.0
O51 O 0.52428 0.46108 0.04219 0.0
O52 O 0.53315 0.55464 0.94561 0.0
O53 O 0.65207 0.52867 0.95370 0.0
O54 O 0.53059 0.67176 0.95041 0.0
C55 C 0.51867 0.41952 0.00337 0.0
C56 C 0.66448 0.54033 0.00831 0.0
O57 O 0.43699 0.56018 0.04746 0.0
O58 O 0.40695 0.51660 0.95838 0.0
Co59 Co 0.53227 0.55564 0.04418 0.0
C60 C 0.05228 0.51077 0.64083 0.0
C61 C 0.05335 0.36313 0.51124 0.0
Co62 Co 0.16572 0.55201 0.56081 0.0
O63 O 0.01346 0.49646 0.41096 0.0
O64 O 0.01228 0.39787 0.50142 0.0
O65 O 0.11727 0.62520 0.52030 0.0
O66 O 0.02012 0.58845 0.51290 0.0
O67 O 0.11655 0.49484 0.50401 0.0
O68 O 0.10847 0.52081 0.38494 0.0
O69 O 0.11173 0.37773 0.50656 0.0
C70 C 0.05889 0.63000 0.51852 0.0
C71 C 0.05393 0.50918 0.37251 0.0
O72 O 0.01484 0.48935 0.60030 0.0
O73 O 0.10381 0.53290 0.63038 0.0
Co74 Co 0.01810 0.49389 0.50489 0.0
C75 C 0.51543 0.01234 0.65887 0.0
C76 C 0.36775 0.01106 0.52917 0.0
Co77 Co 0.54996 0.89901 0.57175 0.0
O78 O 0.50338 0.05134 0.43143 0.0
O79 O 0.40490 0.05223 0.52193 0.0
O80 O 0.62598 0.94768 0.53429 0.0
O81 O 0.59496 0.04480 0.53297 0.0
O82 O 0.49570 0.94813 0.51802 0.0
O83 O 0.52212 0.95637 0.39946 0.0
O84 O 0.37890 0.95268 0.52085 0.0
C85 C 0.63421 0.00610 0.53617 0.0
C86 C 0.51370 0.01092 0.39044 0.0
O87 O 0.49621 0.04979 0.62067 0.0
O88 O 0.53452 0.96085 0.64519 0.0
Co89 Co 0.50055 0.04661 0.52506 0.0
O90 O 0.98908 0.53731 0.63419 0.0
C91 C 0.02688 0.49831 0.64474 0.0
C92 C 0.06162 0.51784 0.70187 0.0
C93 C 0.02490 0.51442 0.75713 0.0
N94 N 0.05975 0.52703 0.81033 0.0
S95 S 0.13323 0.54376 0.81138 0.0
N96 N 0.15949 0.54385 0.74536 0.0
C97 C 0.11915 0.53066 0.69953 0.0
C98 C 0.09209 0.61368 0.70853 0.0
O99 O 0.11108 0.64754 0.75121 0.0
C100 C 0.14141 0.54588 0.63604 0.0
O101 O 0.19593 0.53459 0.63240 0.0
H102 H 0.03036 0.46238 0.60941 0.0
H103 H 0.95731 0.49937 0.75996 0.0
H104 H 0.95731 0.49937 0.75996 0.0
H105 H 0.17303 0.55779 0.86794 0.0
H106 H 0.05727 0.63141 0.67768 0.0
H107 H 0.11154 0.55294 0.59619 0.0
O108 O 0.48571 0.98704 0.15166 0.0
C109 C 0.52891 0.02258 0.16486 0.0
C110 C 0.51670 0.05258 0.22502 0.0
C111 C 0.52057 0.01076 0.27649 0.0
N112 N 0.51501 0.04102 0.33265 0.0
S113 S 0.50527 0.11474 0.34061 0.0
N114 N 0.50297 0.14702 0.27745 0.0
C115 C 0.50913 0.11058 0.22811 0.0
C116 C 0.42441 0.08533 0.23605 0.0
O117 O 0.39542 0.10138 0.28071 0.0
C118 C 0.49155 0.13910 0.16736 0.0
O119 O 0.50767 0.19349 0.16846 0.0
H120 H 0.56258 0.02820 0.12947 0.0
H121 H 0.52946 0.94261 0.27296 0.0
H122 H 0.52946 0.94261 0.27296 0.0
H123 H 0.49898 0.14968 0.40056 0.0
H124 H 0.40129 0.05397 0.20261 0.0
H125 H 0.47891 0.11319 0.12525 0.0
O126 O 0.98935 0.56211 0.14156 0.0
C127 C 0.02385 0.51893 0.14398 0.0
C128 C 0.06064 0.52601 0.20221 0.0
C129 C 0.02453 0.51593 0.25701 0.0
N130 N 0.06083 0.51681 0.31021 0.0
S131 S 0.13522 0.52780 0.31171 0.0
N132 N 0.16054 0.53719 0.24612 0.0
C133 C 0.11883 0.53488 0.20024 0.0
C134 C 0.09884 0.61751 0.22419 0.0
O135 O 0.12098 0.64238 0.27122 0.0
C136 C 0.14144 0.55910 0.13986 0.0
O137 O 0.19466 0.54454 0.13256 0.0
H138 H 0.02395 0.48912 0.10306 0.0
H139 H 0.95618 0.50551 0.25943 0.0
H140 H 0.95618 0.50551 0.25943 0.0
H141 H 0.17659 0.52916 0.36826 0.0
H142 H 0.06532 0.64285 0.19811 0.0
H143 H 0.11187 0.57505 0.10297 0.0
O144 O 0.65514 0.48115 0.03693 0.0
C145 C 0.66570 0.52548 0.00531 0.0
C146 C 0.72651 0.55228 0.02545 0.0
C147 C 0.77771 0.51326 0.00938 0.0
N148 N 0.83412 0.54179 0.02319 0.0
S149 S 0.84260 0.61088 0.05382 0.0
N150 N 0.77964 0.64091 0.06568 0.0
C151 C 0.73001 0.60663 0.04948 0.0
C152 C 0.74306 0.56295 0.12413 0.0
O153 O 0.78940 0.57229 0.15658 0.0
C154 C 0.67038 0.62956 0.07504 0.0
O155 O 0.67047 0.68580 0.07512 0.0
H156 H 0.62833 0.53825 0.97454 0.0
H157 H 0.77369 0.44941 0.98115 0.0
H158 H 0.77369 0.44941 0.98115 0.0
H159 H 0.90284 0.64380 0.06965 0.0
H160 H 0.71107 0.52704 0.13764 0.0
H161 H 0.62909 0.60122 0.08002 0.0
O162 O 0.57494 0.07401 0.89319 0.0
C163 C 0.53753 0.03102 0.88888 0.0
C164 C 0.50103 0.03743 0.83106 0.0
C165 C 0.53628 0.02624 0.77567 0.0
N166 N 0.49988 0.02652 0.72259 0.0
S167 S 0.42625 0.03800 0.72181 0.0
N168 N 0.40179 0.04860 0.78792 0.0
C169 C 0.44347 0.04673 0.83360 0.0
C170 C 0.46895 0.12885 0.81336 0.0
O171 O 0.44835 0.15313 0.76751 0.0
C172 C 0.42270 0.07206 0.89518 0.0
O173 O 0.36854 0.05798 0.90196 0.0
H174 H 0.53554 0.00186 0.92847 0.0
H175 H 0.60390 0.01531 0.77258 0.0
H176 H 0.60390 0.01531 0.77258 0.0
H177 H 0.38480 0.03874 0.66541 0.0
H178 H 0.50426 0.15439 0.84051 0.0
H179 H 0.45346 0.08839 0.93273 0.0
O180 O 0.13133 0.03701 0.48506 0.0
C181 C 0.14079 0.02482 0.53894 0.0
C182 C 0.19885 0.99132 0.54281 0.0
C183 C 0.25336 0.03006 0.53166 0.0
N184 N 0.30725 0.99990 0.54144 0.0
S185 S 0.30978 0.92845 0.56290 0.0
N186 N 0.24430 0.89920 0.57107 0.0
C187 C 0.19767 0.93554 0.55963 0.0
C188 C 0.20950 0.91897 0.47349 0.0
O189 O 0.25353 0.89047 0.45590 0.0
C190 C 0.13524 0.90257 0.55263 0.0
O191 O 0.13181 0.86104 0.58921 0.0
H192 H 0.10425 0.03584 0.56994 0.0
H193 H 0.25483 0.09558 0.51190 0.0
H194 H 0.25483 0.09558 0.51190 0.0
H195 H 0.36712 0.89325 0.57409 0.0
H196 H 0.17904 0.93697 0.43847 0.0
H197 H 0.09547 0.92063 0.52885 0.0
O198 O 0.99727 0.62309 0.48083 0.0
C199 C 0.03370 0.63359 0.52396 0.0
C200 C 0.05944 0.69671 0.51787 0.0
C201 C 0.01473 0.74447 0.52920 0.0
N202 N 0.04125 0.80286 0.52921 0.0
S203 S 0.11390 0.81690 0.51792 0.0
N204 N 0.14987 0.75672 0.50712 0.0
C205 C 0.11680 0.70460 0.50870 0.0
C206 C 0.08762 0.72059 0.42653 0.0
O207 O 0.09971 0.76932 0.40247 0.0
C208 C 0.14825 0.64833 0.48316 0.0
O209 O 0.20310 0.65125 0.49737 0.0
H210 H 0.04286 0.59497 0.55300 0.0
H211 H 0.94732 0.73530 0.53997 0.0
H212 H 0.94732 0.73530 0.53997 0.0
H213 H 0.14483 0.87946 0.51751 0.0
H214 H 0.05743 0.68797 0.40078 0.0
H215 H 0.12446 0.60627 0.46659 0.0
O216 O 0.86412 0.95142 0.50359 0.0
C217 C 0.86159 0.98809 0.54702 0.0
C218 C 0.80852 0.02745 0.53521 0.0
C219 C 0.74904 0.99472 0.53920 0.0
N220 N 0.70034 0.03363 0.53402 0.0
S221 S 0.70827 0.10739 0.52456 0.0
N222 N 0.77720 0.12883 0.52206 0.0
C223 C 0.81788 0.08497 0.52784 0.0
C224 C 0.79950 0.06220 0.44299 0.0
O225 O 0.75756 0.08549 0.41425 0.0
C226 C 0.88271 0.10324 0.51004 0.0
O227 O 0.89461 0.15668 0.52636 0.0
H228 H 0.89951 0.98755 0.58057 0.0
H229 H 0.73795 0.92716 0.54785 0.0
H230 H 0.73795 0.92716 0.54785 0.0
H231 H 0.65685 0.15151 0.51870 0.0
H232 H 0.82399 0.02617 0.41957 0.0
H233 H 0.91751 0.07105 0.49708 0.0
O234 O 0.03849 0.11904 0.48219 0.0
C235 C 0.00317 0.13622 0.52131 0.0
C236 C 0.02917 0.19421 0.54985 0.0
C237 C 0.02762 0.24608 0.50842 0.0
N238 N 0.04648 0.30080 0.53782 0.0
S239 S 0.06795 0.30684 0.61024 0.0
N240 N 0.06469 0.24367 0.64236 0.0
C241 C 0.04546 0.19583 0.60685 0.0
C242 C 0.12657 0.19515 0.57420 0.0
O243 O 0.16462 0.23619 0.58744 0.0
C244 C 0.05711 0.13350 0.63387 0.0
O245 O 0.04923 0.13566 0.68937 0.0
H246 H 0.96511 0.10462 0.53000 0.0
H247 H 0.00851 0.24427 0.44145 0.0
H248 H 0.00851 0.24427 0.44145 0.0
H249 H 0.08879 0.36518 0.64421 0.0
H250 H 0.13947 0.15996 0.54109 0.0
H251 H 0.05908 0.09075 0.60713 0.0
O252 O 0.57307 0.68648 0.04913 0.0
C253 C 0.53629 0.69206 0.00626 0.0
C254 C 0.50175 0.74837 0.01876 0.0
C255 C 0.53912 0.80510 0.01433 0.0
N256 N 0.50458 0.85700 0.02018 0.0
S257 S 0.43079 0.85522 0.03077 0.0
N258 N 0.40383 0.78812 0.03352 0.0
C259 C 0.44394 0.74381 0.02700 0.0
C260 C 0.46920 0.76029 0.11155 0.0
O261 O 0.44992 0.80415 0.14071 0.0
C262 C 0.42067 0.68054 0.04501 0.0
O263 O 0.36639 0.67309 0.02949 0.0
H264 H 0.53324 0.65411 0.97265 0.0
H265 H 0.60703 0.81055 0.00466 0.0
H266 H 0.60703 0.81055 0.00466 0.0
H267 H 0.39131 0.91028 0.03739 0.0
H268 H 0.50326 0.73282 0.13439 0.0
H269 H 0.44992 0.64308 0.05743 0.0
O270 O 0.39368 0.59429 0.05441 0.0
C271 C 0.38847 0.55816 0.01034 0.0
C272 C 0.33429 0.51734 0.01995 0.0
C273 C 0.27582 0.54873 0.01468 0.0
N274 N 0.22582 0.50856 0.01780 0.0
S275 S 0.23137 0.43479 0.02635 0.0
N276 N 0.29964 0.41495 0.03059 0.0
C277 C 0.34178 0.45989 0.02670 0.0
C278 C 0.32684 0.48101 0.11134 0.0
O279 O 0.28490 0.45628 0.13847 0.0
C280 C 0.40656 0.44289 0.04617 0.0
O281 O 0.41602 0.38993 0.02937 0.0
H282 H 0.42541 0.56009 0.97794 0.0
H283 H 0.26692 0.61622 0.00675 0.0
H284 H 0.26692 0.61622 0.00675 0.0
H285 H 0.17847 0.38933 0.02999 0.0
H286 H 0.35339 0.51731 0.13606 0.0
H287 H 0.44297 0.47574 0.06067 0.0
O288 O 0.46507 0.41968 0.04607 0.0
C289 C 0.50189 0.41293 0.00530 0.0
C290 C 0.53837 0.35863 0.01971 0.0
C291 C 0.50285 0.30043 0.01307 0.0
N292 N 0.53915 0.25014 0.02084 0.0
S293 S 0.61297 0.25511 0.03566 0.0
N294 N 0.63772 0.32321 0.04004 0.0
C295 C 0.59609 0.36568 0.03127 0.0
C296 C 0.57169 0.35320 0.11437 0.0
O297 O 0.59255 0.31176 0.14459 0.0
C298 C 0.61734 0.43070 0.05070 0.0
O299 O 0.67134 0.43914 0.03830 0.0
H300 H 0.50355 0.44900 0.97190 0.0
H301 H 0.43504 0.29205 0.99990 0.0
H302 H 0.43504 0.29205 0.99990 0.0
H303 H 0.65433 0.20189 0.04448 0.0
H304 H 0.53677 0.38075 0.13529 0.0
H305 H 0.58687 0.46780 0.06149 0.0
loop_
_geom_bond_atom_site_label_1
_geom_bond_atom_site_label_2
_geom_bond_distance
_geom_bond_site_symmetry_2
_ccdc_geom_bond_type
C0 O12 1.251 . A
C0 O13 1.237 . A
C1 O4 1.205 . S
C1 O9 1.308 . D
Co2 O5 2.132 . S
Co2 O7 1.990 1_554 S
Co2 O13 2.097 . S
O3 C11 1.262 . S
O3 Co14 2.042 1_556 S
O4 Co14 2.087 1_655 S
O5 C10 1.277 . A
O6 C10 1.218 . A
O6 Co14 2.057 . S
O7 Co14 2.142 1_556 S
O8 C11 1.226 . D
O12 Co14 2.081 . S
C15 O27 1.251 . A
C15 O28 1.237 . A
C16 O19 1.205 . S
C16 O24 1.308 . D
Co17 O20 2.132 1_546 S
Co17 O22 1.990 1_556 S
Co17 O28 2.097 . S
O18 C26 1.262 . S
O18 Co29 2.042 . S
O19 Co29 2.087 . S
O20 C25 1.277 . A
O21 C25 1.218 . A
O21 Co29 2.057 1_565 S
O22 Co29 2.142 . S
O23 C26 1.226 . D
O27 Co29 2.081 1_556 S
C30 O42 1.251 1_455 A
C30 O43 1.237 . A
C31 O34 1.203 1_545 S
C31 O39 1.306 1_545 D
Co32 O35 2.132 . S
Co32 O37 1.990 1_545 S
Co32 O43 2.097 . S
O33 C41 1.262 . S
O33 Co44 2.042 . S
O34 Co44 2.087 1_655 S
O35 C40 1.277 . A
O36 C40 1.218 . A
O36 Co44 2.057 1_545 S
O37 Co44 2.142 . S
O38 C41 1.226 . D
O42 Co44 2.081 1_645 S
C45 O57 1.251 . A
C45 O58 1.237 1_554 A
C46 O49 1.205 . S
C46 O54 1.308 1_554 D
Co47 O50 2.132 . S
Co47 O52 1.990 . S
Co47 O58 2.097 . S
O48 C56 1.262 . S
O48 Co59 2.042 . S
O49 Co59 2.087 . S
O50 C55 1.277 1_556 A
O51 C55 1.218 . A
O51 Co59 2.057 . S
O52 Co59 2.142 1_556 S
O53 C56 1.226 1_556 D
O57 Co59 2.081 . S
C60 O72 1.251 . A
C60 O73 1.237 . A
C61 O64 1.205 . S
C61 O69 1.308 . D
Co62 O65 2.132 . S
Co62 O67 1.990 . S
Co62 O73 2.097 . S
O63 C71 1.262 . S
O63 Co74 2.042 . S
O64 Co74 2.087 . S
O65 C70 1.277 . A
O66 C70 1.218 . A
O66 Co74 2.057 . S
O67 Co74 2.142 . S
O68 C71 1.226 . D
O72 Co74 2.081 . S
C75 O87 1.251 . A
C75 O88 1.237 1_545 A
C76 O79 1.205 . S
C76 O84 1.308 1_545 D
Co77 O80 2.132 . S
Co77 O82 1.990 . S
Co77 O88 2.097 . S
O78 C86 1.262 . S
O78 Co89 2.042 . S
O79 Co89 2.087 . S
O80 C85 1.277 1_565 A
O81 C85 1.218 . A
O81 Co89 2.057 . S
O82 Co89 2.142 1_565 S
O83 C86 1.226 1_565 D
O87 Co89 2.081 . S
O90 C91 1.220 1_655 D
C91 C92 1.478 . S
C92 C93 1.464 . S
C93 N94 1.379 . S
N94 S95 1.628 . S
S95 N96 1.560 . D
N96 C97 1.326 . S
C97 C98 1.921 . S
C98 O99 1.221 . D
C97 C100 1.518 . S
C100 O101 1.223 . D
C97 C92 1.277 . S
C91 H102 1.085 . S
C93 H103 1.500 1_455 S
C93 H104 1.500 1_455 S
S95 H105 1.500 . S
C98 H106 1.083 . S
C100 H107 1.084 . S
O108 C109 1.220 1_565 D
C109 C110 1.478 . S
C110 C111 1.464 . S
C111 N112 1.379 . S
N112 S113 1.628 . S
S113 N114 1.560 . D
N114 C115 1.326 . S
C115 C116 1.921 . S
C116 O117 1.221 . D
C115 C118 1.518 . S
C118 O119 1.223 . D
C115 C110 1.277 . S
C109 H120 1.085 . S
C111 H121 1.500 1_545 S
C111 H122 1.500 1_545 S
S113 H123 1.500 . S
C116 H124 1.083 . S
C118 H125 1.084 . S
O126 C127 1.220 1_655 D
C127 C128 1.478 . S
C128 C129 1.464 . S
C129 N130 1.379 . S
N130 S131 1.628 . S
S131 N132 1.560 . D
N132 C133 1.326 . S
C133 C134 1.921 . S
C134 O135 1.221 . D
C133 C136 1.518 . S
C136 O137 1.223 . D
C133 C128 1.277 . S
C127 H138 1.085 . S
C129 H139 1.500 1_455 S
C129 H140 1.500 1_455 S
S131 H141 1.500 . S
C134 H142 1.083 . S
C136 H143 1.084 . S
O144 C145 1.220 . D
C145 C146 1.478 . S
C146 C147 1.464 . S
C147 N148 1.379 . S
N148 S149 1.628 . S
S149 N150 1.560 . D
N150 C151 1.326 . S
C151 C152 1.921 . S
C152 O153 1.221 . D
C151 C154 1.518 . S
C154 O155 1.223 . D
C151 C146 1.277 . S
C145 H156 1.085 1_554 S
C147 H157 1.500 1_554 S
C147 H158 1.500 1_554 S
S149 H159 1.500 . S
C152 H160 1.083 . S
C154 H161 1.084 . S
O162 C163 1.220 . D
C163 C164 1.478 . S
C164 C165 1.464 . S
C165 N166 1.379 . S
N166 S167 1.628 . S
S167 N168 1.560 . D
N168 C169 1.326 . S
C169 C170 1.921 . S
C170 O171 1.221 . D
C169 C172 1.518 . S
C172 O173 1.223 . D
C169 C164 1.277 . S
C163 H174 1.085 . S
C165 H175 1.500 . S
C165 H176 1.500 . S
S167 H177 1.500 . S
C170 H178 1.083 . S
C172 H179 1.084 . S
O180 C181 1.220 . D
C181 C182 1.478 1_545 S
C182 C183 1.464 1_565 S
C183 N184 1.374 1_545 S
N184 S185 1.637 . S
S185 N186 1.560 . D
N186 C187 1.326 . S
C187 C188 1.921 . S
C188 O189 1.221 . D
C187 C190 1.518 . S
C190 O191 1.223 . D
C187 C182 1.277 . S
C181 H192 1.085 . S
C183 H193 1.500 . S
C183 H194 1.500 . S
S185 H195 1.500 . S
C188 H196 1.083 . S
C190 H197 1.084 . S
O198 C199 1.220 1_655 D
C199 C200 1.478 . S
C200 C201 1.464 . S
C201 N202 1.379 . S
N202 S203 1.628 . S
S203 N204 1.560 . D
N204 C205 1.326 . S
C205 C206 1.921 . S
C206 O207 1.221 . D
C205 C208 1.518 . S
C208 O209 1.223 . D
C205 C200 1.277 . S
C199 H210 1.085 . S
C201 H211 1.500 1_455 S
C201 H212 1.500 1_455 S
S203 H213 1.500 . S
C206 H214 1.083 . S
C208 H215 1.084 . S
O216 C217 1.220 . D
C217 C218 1.478 1_565 S
C218 C219 1.464 1_545 S
C219 N220 1.379 1_565 S
N220 S221 1.628 . S
S221 N222 1.560 . D
N222 C223 1.326 . S
C223 C224 1.921 . S
C224 O225 1.221 . D
C223 C226 1.518 . S
C226 O227 1.223 . D
C223 C218 1.277 . S
C217 H228 1.085 . S
C219 H229 1.500 . S
C219 H230 1.500 . S
S221 H231 1.500 . S
C224 H232 1.083 . S
C226 H233 1.084 . S
O234 C235 1.220 . D
C235 C236 1.478 . S
C236 C237 1.464 . S
C237 N238 1.379 . S
N238 S239 1.628 . S
S239 N240 1.560 . D
N240 C241 1.326 . S
C241 C242 1.921 . S
C242 O243 1.221 . D
C241 C244 1.518 . S
C244 O245 1.223 . D
C241 C236 1.277 . S
C235 H246 1.085 1_455 S
C237 H247 1.500 . S
C237 H248 1.500 . S
S239 H249 1.500 . S
C242 H250 1.083 . S
C244 H251 1.084 . S
O252 C253 1.220 . D
C253 C254 1.478 . S
C254 C255 1.464 . S
C255 N256 1.379 . S
N256 S257 1.628 . S
S257 N258 1.560 . D
N258 C259 1.326 . S
C259 C260 1.921 . S
C260 O261 1.221 . D
C259 C262 1.518 . S
C262 O263 1.223 . D
C259 C254 1.277 . S
C253 H264 1.085 1_554 S
C255 H265 1.500 . S
C255 H266 1.500 . S
S257 H267 1.500 . S
C260 H268 1.083 . S
C262 H269 1.084 . S
O270 C271 1.220 . D
C271 C272 1.478 . S
C272 C273 1.464 . S
C273 N274 1.379 . S
N274 S275 1.628 . S
S275 N276 1.560 . D
N276 C277 1.326 . S
C277 C278 1.921 . S
C278 O279 1.221 . D
C277 C280 1.518 . S
C280 O281 1.223 . D
C277 C272 1.277 . S
C271 H282 1.085 1_554 S
C273 H283 1.500 . S
C273 H284 1.500 . S
S275 H285 1.500 . S
C278 H286 1.083 . S
C280 H287 1.084 . S
O288 C289 1.220 . D
C289 C290 1.478 . S
C290 C291 1.464 . S
C291 N292 1.379 . S
N292 S293 1.628 . S
S293 N294 1.560 . D
N294 C295 1.326 . S
C295 C296 1.921 . S
C296 O297 1.221 . D
C295 C298 1.518 . S
C298 O299 1.223 . D
C295 C290 1.277 . S
C289 H300 1.085 1_554 S
C291 H301 1.499 1_554 S
C291 H302 1.499 1_554 S
S293 H303 1.500 . S
C296 H304 1.083 . S
C298 H305 1.084 . S
C92 C60 1.339 . S
N94 C11 1.407 . S
C110 C26 1.394 . S
N112 C86 1.434 . S
C128 C0 1.446 . S
N130 C71 1.381 . S
C146 C56 1.403 . S
N148 C1 1.458 . S
C164 C15 1.493 . S
N166 C75 1.461 . S
C182 C40 1.403 1_565 S
N184 C76 1.367 1_565 S
C200 C70 1.451 . S
N202 C41 1.445 . S
C218 C31 1.508 . S
N220 C85 1.544 . S
C236 C30 1.406 . S
N238 C61 1.494 . S
C254 C46 1.473 . S
N256 C25 1.500 . S
C272 C45 1.443 . S
N274 C10 1.438 . S
C290 C55 1.454 . S
N292 C16 1.402 . S
