# Generated by pormake.
# Topology pcu, (6)-cn, num edge types: 1
# Building blocks:
#     Node 0, Type 0, BuildingBlock: N505, # of connection points: 6
#     Edge 1, Type (0, 0), BuildingBlock: SC(Br)(CBr)C(C=C(Br)C[Fr])C(Br)[Fr], # of connection points: 2
#     Edge 2, Type (0, 0), BuildingBlock: SC(Br)(CBr)C(C=C(Br)C[Fr])C(Br)[Fr], # of connection points: 2
#     Edge 3, Type (0, 0), BuildingBlock: SC(Br)(CBr)C(C=C(Br)C[Fr])C(Br)[Fr], # of connection points: 2
# Relax obj value: 0.000
# Max RMSD: 0.000
# Mean RMSD: 0.000
data_SC(Br)(CBr)C(C=C(Br)C[Fr])C(Br)[Fr]_pcu_N505
_symmetry_space_group_name_H-M    P1
_symmetry_Int_Tables_number       1
_symmetry_cell_setting            triclinic
loop_
_symmetry_equiv_pos_as_xyz
'x, y, z'
_cell_length_a     10.814
_cell_length_b     15.866
_cell_length_c     11.718
_cell_angle_alpha  108.299
_cell_angle_beta   104.683
_cell_angle_gamma  109.577
loop_
_atom_site_label
_atom_site_type_symbol
_atom_site_fract_x
_atom_site_fract_y
_atom_site_fract_z
_atom_type_partial_charge
Yb0 Yb 0.91755 0.84132 0.99015 0.0
Yb1 Yb 0.08265 0.15888 0.01006 0.0
C2 C 0.02575 0.31296 0.00677 0.0
O3 O 0.05405 0.97386 0.20296 0.0
O4 O 0.83658 0.87166 0.16480 0.0
O5 O 0.84126 0.95380 0.97458 0.0
O6 O 0.86009 0.10385 0.01625 0.0
O7 O 0.99430 0.75531 0.09791 0.0
O8 O 0.93118 0.68829 0.88530 0.0
O9 O 0.94616 0.02634 0.79725 0.0
O10 O 0.16362 0.12854 0.83541 0.0
C11 C 0.95111 0.94903 0.23951 0.0
O12 O 0.14011 0.89635 0.98395 0.0
O13 O 0.15894 0.04639 0.02562 0.0
O14 O 0.00591 0.24489 0.90230 0.0
C15 C 0.78885 0.01401 0.98500 0.0
O16 O 0.06903 0.31192 0.11490 0.0
C17 C 0.97445 0.68724 0.99344 0.0
C18 C 0.04909 0.05117 0.76069 0.0
C19 C 0.21135 0.98620 0.01521 0.0
S20 S 0.71479 0.35177 0.12539 0.0
C21 C 0.72158 0.37869 0.98498 0.0
Br22 Br 0.68303 0.49189 0.00405 0.0
C23 C 0.60957 0.28681 0.86663 0.0
Br24 Br 0.58763 0.29517 0.70351 0.0
C25 C 0.86996 0.40862 0.98872 0.0
C26 C 0.89228 0.43295 0.88344 0.0
C27 C 0.96112 0.52086 0.88790 0.0
Br28 Br 0.97357 0.53054 0.72922 0.0
C29 C 0.03194 0.61580 0.00855 0.0
C30 C 0.92830 0.33597 0.00395 0.0
Br31 Br 0.93849 0.32278 0.16311 0.0
H32 H 0.79225 0.43936 0.24180 0.0
H33 H 0.63347 0.22127 0.85768 0.0
H34 H 0.50076 0.26416 0.87174 0.0
H35 H 0.93793 0.47925 0.08387 0.0
H36 H 0.84984 0.37008 0.78446 0.0
H37 H 0.14717 0.65665 0.02239 0.0
H38 H 0.04071 0.60998 0.09966 0.0
H39 H 0.85018 0.26257 0.91834 0.0
S40 S 0.49391 0.72620 0.86835 0.0
C41 C 0.43104 0.80466 0.80851 0.0
Br42 Br 0.23516 0.76653 0.79169 0.0
C43 C 0.44303 0.78483 0.68004 0.0
Br44 Br 0.37749 0.85420 0.59075 0.0
C45 C 0.51792 0.91104 0.90860 0.0
C46 C 0.47981 0.98245 0.87516 0.0
C47 C 0.41207 0.03038 0.92285 0.0
Br48 Br 0.37565 0.12253 0.85841 0.0
C49 C 0.36001 0.01893 0.02508 0.0
C50 C 0.67881 0.94566 0.95426 0.0
Br51 Br 0.74031 0.86978 0.03393 0.0
H52 H 0.45755 0.72182 0.97303 0.0
H53 H 0.55825 0.80696 0.69178 0.0
H54 H 0.38199 0.70271 0.61024 0.0
H55 H 0.49370 0.91086 0.99726 0.0
H56 H 0.51420 0.00327 0.80168 0.0
H57 H 0.40391 0.09581 0.10781 0.0
H58 H 0.39525 0.97763 0.07263 0.0
H59 H 0.70019 0.93344 0.86324 0.0
S60 S 0.84619 0.72595 0.49950 0.0
C61 C 0.00282 0.81677 0.49631 0.0
Br62 Br 0.97963 0.77841 0.31538 0.0
C63 C 0.12885 0.81190 0.57633 0.0
Br64 Br 0.30930 0.89678 0.58530 0.0
C65 C 0.00617 0.91708 0.54628 0.0
C66 C 0.12448 0.99710 0.54887 0.0
C67 C 0.12301 0.04196 0.47125 0.0
Br68 Br 0.30024 0.14790 0.49867 0.0
C69 C 0.99231 0.01694 0.36129 0.0
C70 C 0.99217 0.94808 0.67737 0.0
Br71 Br 0.81555 0.85751 0.66853 0.0
H72 H 0.72056 0.70812 0.40444 0.0
H73 H 0.14003 0.83392 0.68162 0.0
H74 H 0.11765 0.73352 0.53902 0.0
H75 H 0.90371 0.90573 0.47274 0.0
H76 H 0.23249 0.02845 0.62838 0.0
H77 H 0.98274 0.08813 0.37397 0.0
H78 H 0.89135 0.96712 0.35569 0.0
H79 H 0.08351 0.94657 0.74643 0.0
loop_
_geom_bond_atom_site_label_1
_geom_bond_atom_site_label_2
_geom_bond_distance
_geom_bond_site_symmetry_2
_ccdc_geom_bond_type
Yb0 O3 2.362 1_656 S
Yb0 O4 2.400 1_556 S
Yb0 O5 2.239 . S
Yb0 O7 2.336 1_556 S
Yb0 O8 2.426 . S
Yb0 O12 2.298 1_655 S
Yb1 O6 2.298 1_455 S
Yb1 O9 2.362 1_454 S
Yb1 O10 2.400 1_554 S
Yb1 O13 2.239 . S
Yb1 O14 2.336 1_554 S
Yb1 O16 2.426 . S
C2 O14 1.262 1_554 A
C2 O16 1.242 . A
O3 C11 1.277 1_455 A
O4 C11 1.250 . A
O5 C15 1.254 1_565 A
O6 C15 1.246 1_554 A
O7 C17 1.262 1_554 A
O8 C17 1.242 . A
O9 C18 1.277 1_655 A
O10 C18 1.251 . A
O12 C19 1.246 1_556 A
O13 C19 1.254 1_545 A
S20 C21 1.838 1_554 S
C21 Br22 1.936 1_556 S
C21 C23 1.487 . S
C23 Br24 1.918 . S
C21 C25 1.498 . S
C25 C26 1.455 . S
C26 C27 1.319 . D
C27 Br28 1.947 . S
C27 C29 1.482 1_656 S
C25 C30 1.522 1_556 S
C30 Br31 1.921 . S
S20 H32 1.394 . S
C23 H33 1.133 . S
C23 H34 1.133 . S
C25 H35 1.135 1_556 S
C26 H36 1.117 . S
C29 H37 1.135 . S
C29 H38 1.084 . S
C30 H39 1.120 1_554 S
S40 C41 1.838 . S
C41 Br42 1.936 . S
C41 C43 1.487 . S
C43 Br44 1.918 . S
C41 C45 1.498 . S
C45 C46 1.455 . S
C46 C47 1.319 1_565 D
C47 Br48 1.947 . S
C47 C49 1.482 1_556 S
C45 C50 1.522 . S
C50 Br51 1.921 1_556 S
S40 H52 1.394 . S
C43 H53 1.133 . S
C43 H54 1.133 . S
C45 H55 1.135 . S
C46 H56 1.117 1_565 S
C49 H57 1.135 . S
C49 H58 1.084 1_545 S
C50 H59 1.120 . S
S60 C61 1.838 1_655 S
C61 Br62 1.936 1_455 S
C61 C63 1.487 . S
C63 Br64 1.918 . S
C61 C65 1.498 . S
C65 C66 1.455 . S
C66 C67 1.319 1_565 D
C67 Br68 1.947 . S
C67 C69 1.482 1_455 S
C65 C70 1.522 1_455 S
C70 Br71 1.921 . S
S60 H72 1.394 . S
C63 H73 1.133 . S
C63 H74 1.133 . S
C65 H75 1.135 1_455 S
C66 H76 1.117 1_565 S
C69 H77 1.135 . S
C69 H78 1.084 1_545 S
C70 H79 1.120 1_655 S
C29 C17 1.498 1_454 S
C30 C2 1.222 1_655 S
C49 C19 1.475 1_545 S
C50 C15 1.181 1_565 S
C69 C11 1.336 1_545 S
C70 C18 1.423 1_665 S
